<?xml version="1.0" encoding="UTF-8"?>

<!-- generated on 2026-02-19T16:30:05.700502+05:30 by Eclipse SUMO netconvert 1.26.0
<netconvertConfiguration xmlns:xsi="http://www.w3.org/2001/XMLSchema-instance" xsi:noNamespaceSchemaLocation="http://sumo.dlr.de/xsd/netconvertConfiguration.xsd">

    <input>
        <osm-files value="data/howrah_bandel.osm"/>
    </input>

    <output>
        <output-file value="data/network.net.xml"/>
    </output>

    <projection>
        <proj.utm value="true"/>
    </projection>

    <processing>
        <geometry.remove value="false"/>
        <geometry.max-segment-length value="500"/>
    </processing>

    <edge_removal>
        <remove-edges.isolated value="false"/>
    </edge_removal>

    <junctions>
        <junctions.join value="true"/>
        <junctions.join-dist value="120"/>
    </junctions>

    <railway>
        <railway.topology.repair value="true"/>
    </railway>

    <report>
        <verbose value="true"/>
    </report>

</netconvertConfiguration>
-->

<net version="1.20" junctionCornerDetail="5" limitTurnSpeed="5.50" xmlns:xsi="http://www.w3.org/2001/XMLSchema-instance" xsi:noNamespaceSchemaLocation="http://sumo.dlr.de/xsd/net_file.xsd">

    <location netOffset="-625464.72,-2489647.69" convBoundary="0.00,0.00,24920.57,65694.52" origBoundary="88.220956,22.507682,88.467011,23.100024" projParameter="+proj=utm +zone=45 +ellps=WGS84 +datum=WGS84 +units=m +no_defs"/>

    <type id="railway.rail" priority="20" numLanes="1" speed="44.44" allow="rail" oneway="1"/>

    <edge id=":10030876414_0" function="internal">
        <lane id=":10030876414_0_0" index="0" allow="rail rail_electric rail_fast" speed="44.44" length="0.29" shape="12895.86,16011.38 12895.56,16011.35"/>
    </edge>
    <edge id=":10030876415_0" function="internal">
        <lane id=":10030876415_0_0" index="0" allow="rail rail_electric rail_fast" speed="44.44" length="0.27" shape="12767.70,15997.51 12767.44,15997.48"/>
    </edge>
    <edge id=":10031280411_0" function="internal">
        <lane id=":10031280411_0_0" index="0" allow="rail rail_electric rail_fast" speed="44.44" length="35.43" shape="19571.88,14181.00 19557.11,14148.79"/>
    </edge>
    <edge id=":10031280411_1" function="internal">
        <lane id=":10031280411_1_0" index="0" allow="rail" speed="44.44" length="35.43" shape="19571.88,14181.00 19569.41,14174.52 19565.88,14164.34 19562.43,14154.13 19560.22,14147.55"/>
    </edge>
    <edge id=":10031280414_0" function="internal">
        <lane id=":10031280414_0_0" index="0" allow="rail" speed="44.44" length="2.92" shape="19552.25,14124.42 19551.99,14123.59 19551.83,14123.02 19551.65,14122.45 19551.30,14121.66"/>
    </edge>
    <edge id=":10031280414_1" function="internal">
        <lane id=":10031280414_1_0" index="0" allow="rail" speed="44.44" length="2.90" shape="19551.30,14121.66 19552.56,14124.28"/>
    </edge>
    <edge id=":10278369432_0" function="internal">
        <lane id=":10278369432_0_0" index="0" allow="rail rail_electric rail_fast" speed="44.44" length="3.15" shape="17578.70,10346.14 17579.58,10346.44 17580.19,10346.63 17580.81,10346.78 17581.73,10346.94"/>
    </edge>
    <edge id=":10278369435_0" function="internal">
        <lane id=":10278369435_0_0" index="0" allow="rail rail_electric rail_fast" speed="44.44" length="2.82" shape="17589.78,10324.82 17592.37,10325.94"/>
    </edge>
    <edge id=":10278369435_1" function="internal">
        <lane id=":10278369435_1_0" index="0" allow="rail" speed="44.44" length="2.81" shape="17589.72,10325.02 17590.52,10325.25 17591.07,10325.42 17591.60,10325.62 17592.37,10325.94"/>
    </edge>
    <edge id=":10281666789_0" function="internal">
        <lane id=":10281666789_0_0" index="0" allow="rail rail_electric rail_fast" speed="44.44" length="0.10" shape="17649.32,10348.99 17649.32,10348.99"/>
    </edge>
    <edge id=":10281698638_0" function="internal">
        <lane id=":10281698638_0_0" index="0" allow="rail rail_electric rail_fast" speed="44.44" length="0.10" shape="17765.69,11695.46 17765.69,11695.46"/>
    </edge>
    <edge id=":10281698639_0" function="internal">
        <lane id=":10281698639_0_0" index="0" allow="rail rail_electric rail_fast" speed="44.44" length="0.30" shape="17766.26,11688.86 17766.24,11689.16"/>
    </edge>
    <edge id=":10672068236_0" function="internal">
        <lane id=":10672068236_0_0" index="0" allow="rail" speed="44.44" length="30.37" shape="10728.93,10051.73 10698.94,10056.50"/>
    </edge>
    <edge id=":10672068236_1" function="internal">
        <lane id=":10672068236_1_0" index="0" allow="rail" speed="44.44" length="30.37" shape="10728.21,10048.44 10722.30,10050.14 10713.62,10052.64 10704.91,10055.06 10698.94,10056.50"/>
    </edge>
    <edge id=":10672068315_0" function="internal">
        <lane id=":10672068315_0_0" index="0" allow="rail rail_electric rail_fast" speed="2.85" length="1.60" shape="10895.69,10106.66 10895.12,10106.78 10894.93,10106.86 10895.14,10106.90 10895.73,10106.92"/>
    </edge>
    <edge id=":10672068315_1" function="internal">
        <lane id=":10672068315_1_0" index="0" allow="rail rail_electric rail_fast" speed="44.44" length="2.74" shape="10892.99,10106.92 10895.73,10106.92"/>
    </edge>
    <edge id=":10672068333_0" function="internal">
        <lane id=":10672068333_0_0" index="0" allow="rail rail_electric rail_fast" speed="44.44" length="2.99" shape="10703.30,10059.58 10700.32,10059.81"/>
    </edge>
    <edge id=":10672332342_0" function="internal">
        <lane id=":10672332342_0_0" index="0" allow="rail rail_electric rail_fast" speed="0.10" length="0.10" shape="19406.93,13888.13 19406.93,13888.13"/>
    </edge>
    <edge id=":1074604541_0" function="internal">
        <lane id=":1074604541_0_0" index="0" allow="rail" speed="44.44" length="31.67" shape="10764.44,1114.43 10742.27,1137.05"/>
    </edge>
    <edge id=":1074604541_1" function="internal">
        <lane id=":1074604541_1_0" index="0" allow="rail" speed="44.44" length="31.67" shape="10764.44,1114.43 10740.00,1134.58"/>
    </edge>
    <edge id=":1074604567_0" function="internal">
        <lane id=":1074604567_0_0" index="0" allow="rail rail_electric rail_fast" speed="44.44" length="0.30" shape="17706.89,10355.25 17706.83,10354.95"/>
    </edge>
    <edge id=":1074604580_0" function="internal">
        <lane id=":1074604580_0_0" index="0" allow="rail" speed="44.44" length="0.22" shape="10515.91,4398.35 10515.95,4398.40 10515.97,4398.44 10516.00,4398.47 10516.04,4398.52"/>
    </edge>
    <edge id=":1074604643_0" function="internal">
        <lane id=":1074604643_0_0" index="0" allow="rail rail_electric rail_fast" speed="44.44" length="2.84" shape="16467.30,10738.11 16465.36,10740.19"/>
    </edge>
    <edge id=":1074604643_1" function="internal">
        <lane id=":1074604643_1_0" index="0" allow="rail rail_electric rail_fast" speed="44.44" length="2.83" shape="16465.49,10740.29 16465.99,10739.61 16466.35,10739.16 16466.73,10738.73 16467.30,10738.11"/>
    </edge>
    <edge id=":1074604668_0" function="internal">
        <lane id=":1074604668_0_0" index="0" allow="rail rail_electric rail_fast" speed="44.44" length="0.30" shape="17624.35,9960.56 17624.29,9960.26"/>
    </edge>
    <edge id=":1074604690_0" function="internal">
        <lane id=":1074604690_0_0" index="0" allow="rail" speed="44.44" length="0.10" shape="10175.49,1511.41 10175.49,1511.41"/>
    </edge>
    <edge id=":1074604725_0" function="internal">
        <lane id=":1074604725_0_0" index="0" allow="rail rail_electric rail_fast" speed="44.44" length="0.29" shape="17618.66,9931.99 17618.60,9931.71"/>
    </edge>
    <edge id=":1074605124_0" function="internal">
        <lane id=":1074605124_0_0" index="0" allow="rail rail_electric rail_fast" speed="44.44" length="2.69" shape="15949.13,11131.74 15946.63,11132.73"/>
    </edge>
    <edge id=":1074605142_0" function="internal">
        <lane id=":1074605142_0_0" index="0" allow="rail" speed="44.44" length="2.80" shape="10337.45,1412.94 10334.96,1414.21"/>
    </edge>
    <edge id=":1074605142_1" function="internal">
        <lane id=":1074605142_1_0" index="0" allow="rail" speed="44.44" length="2.79" shape="10337.39,1412.84 10336.69,1413.28 10336.20,1413.57 10335.70,1413.84 10334.96,1414.21"/>
    </edge>
    <edge id=":1074605217_0" function="internal">
        <lane id=":1074605217_0_0" index="0" allow="rail rail_electric rail_fast" speed="44.44" length="0.10" shape="17497.11,15697.64 17497.11,15697.64"/>
    </edge>
    <edge id=":11584451646_0" function="internal">
        <lane id=":11584451646_0_0" index="0" allow="rail" speed="44.44" length="2.66" shape="12220.66,13602.70 12220.59,13600.04"/>
    </edge>
    <edge id=":1174795871_0" function="internal">
        <lane id=":1174795871_0_0" index="0" allow="rail" speed="44.44" length="42.65" shape="13056.82,7873.78 13070.19,7914.28"/>
    </edge>
    <edge id=":1174795871_1" function="internal">
        <lane id=":1174795871_1_0" index="0" allow="rail" speed="44.44" length="42.65" shape="13053.72,7874.95 13070.19,7914.28"/>
    </edge>
    <edge id=":1174795982_0" function="internal">
        <lane id=":1174795982_0_0" index="0" allow="rail" speed="44.44" length="0.25" shape="13209.61,8329.92 13209.69,8330.16"/>
    </edge>
    <edge id=":1174832667_0" function="internal">
        <lane id=":1174832667_0_0" index="0" allow="rail" speed="44.44" length="24.90" shape="12876.02,7415.24 12878.42,7419.93 12882.12,7426.06 12885.91,7432.14 12888.55,7436.73"/>
    </edge>
    <edge id=":1174832667_1" function="internal">
        <lane id=":1174832667_1_0" index="0" allow="rail" speed="44.44" length="25.19" shape="12876.02,7415.24 12885.74,7438.48"/>
    </edge>
    <edge id=":1177499505_0" function="internal">
        <lane id=":1177499505_0_0" index="0" allow="rail rail_electric rail_fast" speed="44.44" length="0.28" shape="14630.30,10567.15 14630.50,10567.34"/>
    </edge>
    <edge id=":1185755834_0" function="internal">
        <lane id=":1185755834_0_0" index="0" allow="rail rail_electric rail_fast" speed="44.44" length="2.98" shape="11785.52,10595.07 11786.38,10597.92"/>
    </edge>
    <edge id=":1189845324_0" function="internal">
        <lane id=":1189845324_0_0" index="0" allow="rail rail_electric rail_fast" speed="44.44" length="2.88" shape="12146.18,8628.17 12145.38,8628.47 12144.82,8628.65 12144.26,8628.80 12143.43,8629.00"/>
    </edge>
    <edge id=":1189845324_1" function="internal">
        <lane id=":1189845324_1_0" index="0" allow="rail rail_electric rail_fast" speed="2.82" length="1.57" shape="12143.47,8629.13 12144.02,8628.93 12144.20,8628.85 12144.00,8628.87 12143.43,8629.00"/>
    </edge>
    <edge id=":1189845327_0" function="internal">
        <lane id=":1189845327_0_0" index="0" allow="rail" speed="44.44" length="26.32" shape="11390.96,9774.65 11388.02,9779.30 11384.30,9785.98 11380.70,9792.72 11378.09,9797.60"/>
    </edge>
    <edge id=":1189845327_1" function="internal">
        <lane id=":1189845327_1_0" index="0" allow="rail" speed="44.44" length="26.32" shape="11390.96,9774.65 11375.24,9795.76"/>
    </edge>
    <edge id=":1189845414_0" function="internal">
        <lane id=":1189845414_0_0" index="0" allow="rail" speed="44.44" length="0.10" shape="11302.93,9795.34 11302.93,9795.34"/>
    </edge>
    <edge id=":1189845422_0" function="internal">
        <lane id=":1189845422_0_0" index="0" allow="rail rail_electric rail_fast" speed="44.44" length="3.01" shape="11637.57,9143.37 11636.50,9146.18"/>
    </edge>
    <edge id=":1189845422_1" function="internal">
        <lane id=":1189845422_1_0" index="0" allow="rail rail_electric rail_fast" speed="44.44" length="2.99" shape="11636.67,9146.22 11637.40,9143.33"/>
    </edge>
    <edge id=":1189845460_0" function="internal">
        <lane id=":1189845460_0_0" index="0" allow="rail rail_electric rail_fast" speed="44.44" length="12.95" shape="11549.65,9703.72 11549.49,9690.77"/>
    </edge>
    <edge id=":1189845460_1" function="internal">
        <lane id=":1189845460_1_0" index="0" allow="rail rail_electric rail_fast" speed="44.44" length="12.96" shape="11553.24,9703.11 11552.02,9699.89 11550.88,9697.04 11549.98,9694.14 11549.49,9690.77"/>
    </edge>
    <edge id=":1189845484_0" function="internal">
        <lane id=":1189845484_0_0" index="0" allow="rail" speed="44.44" length="0.31" shape="10915.54,10094.60 10915.46,10094.64 10915.40,10094.66 10915.34,10094.67 10915.25,10094.69"/>
    </edge>
    <edge id=":1189845496_0" function="internal">
        <lane id=":1189845496_0_0" index="0" allow="rail" speed="44.44" length="19.61" shape="11808.36,8876.89 11811.25,8873.46 11814.71,8869.38 11818.02,8865.20 11820.44,8861.47"/>
    </edge>
    <edge id=":1189845496_1" function="internal">
        <lane id=":1189845496_1_0" index="0" allow="rail rail_electric rail_fast" speed="44.44" length="19.62" shape="11811.26,8878.80 11820.44,8861.47"/>
    </edge>
    <edge id=":1189845502_0" function="internal">
        <lane id=":1189845502_0_0" index="0" allow="rail rail_electric rail_fast" speed="44.44" length="2.91" shape="11658.43,9011.02 11657.31,9013.71"/>
    </edge>
    <edge id=":1189845502_1" function="internal">
        <lane id=":1189845502_1_0" index="0" allow="rail rail_electric rail_fast" speed="44.44" length="2.92" shape="11657.31,9013.71 11658.53,9011.06"/>
    </edge>
    <edge id=":1189845623_0" function="internal">
        <lane id=":1189845623_0_0" index="0" allow="rail" speed="44.44" length="23.87" shape="11703.73,10303.36 11704.73,10308.40 11706.05,10315.08 11707.47,10321.73 11708.76,10326.69"/>
    </edge>
    <edge id=":1189845623_1" function="internal">
        <lane id=":1189845623_1_0" index="0" allow="rail rail_electric rail_fast" speed="44.44" length="23.87" shape="11700.45,10304.31 11708.76,10326.69"/>
    </edge>
    <edge id=":1189845644_0" function="internal">
        <lane id=":1189845644_0_0" index="0" allow="rail" speed="44.44" length="3.05" shape="11506.80,10225.50 11509.25,10227.32"/>
    </edge>
    <edge id=":1189845653_0" function="internal">
        <lane id=":1189845653_0_0" index="0" allow="rail rail_electric rail_fast" speed="44.44" length="13.35" shape="11781.42,9016.44 11780.94,9012.97 11780.46,9009.81 11780.19,9006.64 11780.34,9003.17"/>
    </edge>
    <edge id=":1189845653_1" function="internal">
        <lane id=":1189845653_1_0" index="0" allow="rail" speed="44.44" length="13.34" shape="11777.79,9016.27 11778.54,9012.85 11779.24,9009.75 11779.85,9006.63 11780.34,9003.17"/>
    </edge>
    <edge id=":1189845665_0" function="internal">
        <lane id=":1189845665_0_0" index="0" allow="rail rail_electric rail_fast" speed="2.84" length="1.61" shape="11969.69,8638.42 11969.23,8638.81 11969.09,8638.95 11969.28,8638.87 11969.79,8638.55"/>
    </edge>
    <edge id=":1189845665_1" function="internal">
        <lane id=":1189845665_1_0" index="0" allow="rail rail_electric rail_fast" speed="44.44" length="3.03" shape="11967.30,8640.27 11969.79,8638.55"/>
    </edge>
    <edge id=":1189845699_0" function="internal">
        <lane id=":1189845699_0_0" index="0" allow="rail" speed="44.44" length="2.73" shape="11698.81,10279.77 11699.39,10282.44"/>
    </edge>
    <edge id=":1189845699_1" function="internal">
        <lane id=":1189845699_1_0" index="0" allow="rail" speed="44.44" length="2.71" shape="11698.61,10279.85 11698.89,10280.60 11699.07,10281.12 11699.21,10281.65 11699.39,10282.44"/>
    </edge>
    <edge id=":1189845733_0" function="internal">
        <lane id=":1189845733_0_0" index="0" allow="rail" speed="44.44" length="46.82" shape="10912.16,10117.00 10865.46,10113.63"/>
    </edge>
    <edge id=":1189845733_1" function="internal">
        <lane id=":1189845733_1_0" index="0" allow="rail rail_electric rail_fast" speed="44.44" length="46.82" shape="10912.27,10113.70 10903.55,10113.76 10888.85,10113.86 10874.17,10113.85 10865.46,10113.63"/>
    </edge>
    <edge id=":1189845756_0" function="internal">
        <lane id=":1189845756_0_0" index="0" allow="rail rail_electric rail_fast" speed="44.44" length="29.82" shape="11982.72,8630.22 12007.79,8614.08"/>
    </edge>
    <edge id=":1189845756_1" function="internal">
        <lane id=":1189845756_1_0" index="0" allow="rail" speed="44.44" length="29.81" shape="11984.72,8632.94 11989.35,8629.02 11996.11,8623.32 12002.95,8617.71 12007.79,8614.08"/>
    </edge>
    <edge id=":1189845763_0" function="internal">
        <lane id=":1189845763_0_0" index="0" allow="rail rail_electric rail_fast" speed="44.44" length="3.00" shape="11596.51,9164.03 11595.32,9166.79"/>
    </edge>
    <edge id=":1189845763_1" function="internal">
        <lane id=":1189845763_1_0" index="0" allow="rail rail_electric rail_fast" speed="44.44" length="2.99" shape="11595.50,9166.85 11596.51,9164.03"/>
    </edge>
    <edge id=":1189845766_0" function="internal">
        <lane id=":1189845766_0_0" index="0" allow="rail" speed="44.44" length="3.13" shape="11691.76,10204.35 11691.49,10207.47"/>
    </edge>
    <edge id=":1189845787_0" function="internal">
        <lane id=":1189845787_0_0" index="0" allow="rail" speed="44.44" length="2.85" shape="11452.83,10155.37 11454.30,10157.81"/>
    </edge>
    <edge id=":1189845817_0" function="internal">
        <lane id=":1189845817_0_0" index="0" allow="rail" speed="44.44" length="30.74" shape="11603.92,10312.84 11622.77,10337.13"/>
    </edge>
    <edge id=":1189845817_1" function="internal">
        <lane id=":1189845817_1_0" index="0" allow="rail" speed="44.44" length="30.73" shape="11601.39,10315.07 11605.82,10319.44 11612.34,10325.88 11618.73,10332.44 11622.77,10337.13"/>
    </edge>
    <edge id=":1189845841_0" function="internal">
        <lane id=":1189845841_0_0" index="0" allow="rail rail_electric rail_fast" speed="44.44" length="3.02" shape="11880.53,8692.46 11882.66,8690.32"/>
    </edge>
    <edge id=":1189845990_0" function="internal">
        <lane id=":1189845990_0_0" index="0" allow="rail" speed="44.44" length="2.79" shape="11902.29,8639.72 11902.78,8639.05 11903.10,8638.58 11903.39,8638.09 11903.80,8637.37"/>
    </edge>
    <edge id=":1189845990_1" function="internal">
        <lane id=":1189845990_1_0" index="0" allow="rail" speed="44.44" length="2.81" shape="11902.29,8639.72 11903.99,8637.48"/>
    </edge>
    <edge id=":1189846010_0" function="internal">
        <lane id=":1189846010_0_0" index="0" allow="rail" speed="44.44" length="0.10" shape="11280.09,9884.00 11280.09,9884.00"/>
    </edge>
    <edge id=":1189846079_0" function="internal">
        <lane id=":1189846079_0_0" index="0" allow="rail rail_electric rail_fast" speed="44.44" length="3.01" shape="12209.55,8605.91 12206.68,8606.82"/>
    </edge>
    <edge id=":1189846079_1" function="internal">
        <lane id=":1189846079_1_0" index="0" allow="rail rail_electric rail_fast" speed="44.44" length="3.03" shape="12206.59,8606.55 12209.57,8605.99"/>
    </edge>
    <edge id=":1189846101_0" function="internal">
        <lane id=":1189846101_0_0" index="0" allow="rail" speed="44.44" length="3.01" shape="11462.78,10170.87 11463.13,10171.68 11463.39,10172.24 11463.68,10172.78 11464.15,10173.54"/>
    </edge>
    <edge id=":1189846101_1" function="internal">
        <lane id=":1189846101_1_0" index="0" allow="rail" speed="44.44" length="2.99" shape="11462.56,10171.00 11464.15,10173.54"/>
    </edge>
    <edge id=":1189846107_0" function="internal">
        <lane id=":1189846107_0_0" index="0" allow="rail" speed="44.44" length="22.24" shape="11649.63,10366.48 11652.45,10370.46 11656.34,10375.33 11660.33,10380.14 11663.44,10383.90"/>
    </edge>
    <edge id=":1189846107_1" function="internal">
        <lane id=":1189846107_1_0" index="0" allow="rail" speed="44.44" length="22.24" shape="11649.63,10366.48 11660.60,10385.83"/>
    </edge>
    <edge id=":1189846154_0" function="internal">
        <lane id=":1189846154_0_0" index="0" allow="rail" speed="44.44" length="2.84" shape="11425.28,9743.64 11423.95,9746.15"/>
    </edge>
    <edge id=":1189846154_1" function="internal">
        <lane id=":1189846154_1_0" index="0" allow="rail" speed="44.44" length="2.84" shape="11425.28,9743.64 11423.87,9746.11"/>
    </edge>
    <edge id=":1189846169_0" function="internal">
        <lane id=":1189846169_0_0" index="0" allow="rail" speed="44.44" length="2.77" shape="11691.18,10243.90 11691.21,10244.72 11691.25,10245.28 11691.34,10245.84 11691.50,10246.65"/>
    </edge>
    <edge id=":1189846169_1" function="internal">
        <lane id=":1189846169_1_0" index="0" allow="rail" speed="44.44" length="2.77" shape="11690.98,10243.93 11691.50,10246.65"/>
    </edge>
    <edge id=":1189846245_0" function="internal">
        <lane id=":1189846245_0_0" index="0" allow="rail rail_electric rail_fast" speed="44.44" length="31.99" shape="11877.32,8687.90 11855.07,8710.89"/>
    </edge>
    <edge id=":1189846245_1" function="internal">
        <lane id=":1189846245_1_0" index="0" allow="rail rail_electric rail_fast" speed="44.44" length="31.99" shape="11874.78,8685.69 11855.07,8710.89"/>
    </edge>
    <edge id=":1189846353_0" function="internal">
        <lane id=":1189846353_0_0" index="0" allow="rail" speed="44.44" length="42.02" shape="11770.43,10520.16 11771.25,10528.10 11772.60,10541.08 11774.13,10554.03 11775.45,10561.86"/>
    </edge>
    <edge id=":1189846353_1" function="internal">
        <lane id=":1189846353_1_0" index="0" allow="rail rail_electric rail_fast" speed="44.44" length="42.03" shape="11767.15,10520.66 11768.65,10528.50 11771.12,10541.31 11773.67,10554.10 11775.45,10561.86"/>
    </edge>
    <edge id=":1189846386_0" function="internal">
        <lane id=":1189846386_0_0" index="0" allow="rail" speed="44.44" length="26.89" shape="11473.63,9666.47 11469.13,9692.98"/>
    </edge>
    <edge id=":1189846386_1" function="internal">
        <lane id=":1189846386_1_0" index="0" allow="rail" speed="44.44" length="26.89" shape="11473.63,9666.47 11465.83,9692.21"/>
    </edge>
    <edge id=":1189846391_0" function="internal">
        <lane id=":1189846391_0_0" index="0" allow="rail" speed="44.44" length="3.20" shape="11475.76,10191.67 11475.16,10190.94 11474.78,10190.40 11474.48,10189.82 11474.14,10188.94"/>
    </edge>
    <edge id=":1189846391_1" function="internal">
        <lane id=":1189846391_1_0" index="0" allow="rail" speed="2.80" length="1.46" shape="11473.89,10189.10 11474.19,10189.54 11474.33,10189.66 11474.31,10189.46 11474.14,10188.94"/>
    </edge>
    <edge id=":1189846429_0" function="internal">
        <lane id=":1189846429_0_0" index="0" allow="rail rail_electric rail_fast" speed="44.44" length="30.73" shape="12149.97,8615.81 12179.54,8607.44"/>
    </edge>
    <edge id=":1189846429_1" function="internal">
        <lane id=":1189846429_1_0" index="0" allow="rail rail_electric rail_fast" speed="44.44" length="30.72" shape="12149.97,8615.81 12156.01,8614.46 12165.04,8612.97 12174.11,8611.63 12180.26,8610.73"/>
    </edge>
    <edge id=":1189846463_0" function="internal">
        <lane id=":1189846463_0_0" index="0" allow="rail rail_electric rail_fast" speed="44.44" length="25.32" shape="12054.20,8385.83 12050.69,8389.91 12045.92,8395.46 12041.32,8401.12 12038.32,8405.53"/>
    </edge>
    <edge id=":1189846463_1" function="internal">
        <lane id=":1189846463_1_0" index="0" allow="rail rail_electric rail_fast" speed="44.44" length="25.33" shape="12051.43,8383.85 12038.32,8405.53"/>
    </edge>
    <edge id=":1189846482_0" function="internal">
        <lane id=":1189846482_0_0" index="0" allow="rail rail_electric rail_fast" speed="44.44" length="2.88" shape="12264.53,8593.57 12267.34,8592.91"/>
    </edge>
    <edge id=":1189846505_0" function="internal">
        <lane id=":1189846505_0_0" index="0" allow="rail rail_electric rail_fast" speed="44.44" length="34.39" shape="12007.36,8650.12 12001.13,8652.80 11991.69,8657.20 11982.30,8661.70 11976.22,8664.71"/>
    </edge>
    <edge id=":1189846505_1" function="internal">
        <lane id=":1189846505_1_0" index="0" allow="rail rail_electric rail_fast" speed="44.44" length="29.49" shape="12007.36,8650.12 11979.55,8659.93"/>
    </edge>
    <edge id=":1189846553_0" function="internal">
        <lane id=":1189846553_0_0" index="0" allow="rail" speed="44.44" length="20.56" shape="11784.26,8937.31 11785.53,8932.86 11787.09,8927.41 11788.81,8922.02 11790.59,8917.78"/>
    </edge>
    <edge id=":1189846553_1" function="internal">
        <lane id=":1189846553_1_0" index="0" allow="rail rail_electric rail_fast" speed="44.44" length="20.53" shape="11787.65,8938.02 11788.01,8933.38 11788.45,8927.69 11789.22,8922.10 11790.59,8917.78"/>
    </edge>
    <edge id=":1189846559_0" function="internal">
        <lane id=":1189846559_0_0" index="0" allow="rail" speed="44.44" length="2.91" shape="11443.04,9712.88 11442.70,9713.68 11442.45,9714.22 11442.16,9714.73 11441.72,9715.48"/>
    </edge>
    <edge id=":1189846559_1" function="internal">
        <lane id=":1189846559_1_0" index="0" allow="rail" speed="2.87" length="1.69" shape="11441.91,9715.56 11442.15,9714.98 11442.19,9714.78 11442.05,9714.94 11441.72,9715.48"/>
    </edge>
    <edge id=":1189846588_0" function="internal">
        <lane id=":1189846588_0_0" index="0" allow="rail" speed="44.44" length="2.83" shape="11410.04,9777.08 11408.98,9779.71"/>
    </edge>
    <edge id=":1189846588_1" function="internal">
        <lane id=":1189846588_1_0" index="0" allow="rail" speed="2.80" length="1.51" shape="11409.16,9779.76 11409.30,9779.22 11409.31,9779.03 11409.20,9779.19 11408.98,9779.71"/>
    </edge>
    <edge id=":1189846631_0" function="internal">
        <lane id=":1189846631_0_0" index="0" allow="rail" speed="44.44" length="19.94" shape="11759.24,8959.49 11761.85,8955.79 11765.01,8951.34 11768.02,8946.81 11770.22,8942.87"/>
    </edge>
    <edge id=":1189846631_1" function="internal">
        <lane id=":1189846631_1_0" index="0" allow="rail" speed="44.44" length="19.97" shape="11762.38,8961.24 11764.00,8957.01 11766.13,8951.99 11768.35,8947.00 11770.22,8942.87"/>
    </edge>
    <edge id=":1189846634_0" function="internal">
        <lane id=":1189846634_0_0" index="0" allow="rail" speed="44.44" length="2.76" shape="11397.18,9824.54 11397.87,9821.86"/>
    </edge>
    <edge id=":1191386062_0" function="internal">
        <lane id=":1191386062_0_0" index="0" allow="rail rail_electric rail_fast" speed="44.44" length="33.34" shape="14750.34,10682.19 14774.42,10705.26"/>
    </edge>
    <edge id=":1191386062_1" function="internal">
        <lane id=":1191386062_1_0" index="0" allow="rail" speed="44.44" length="33.34" shape="14750.34,10682.19 14754.79,10687.08 14761.30,10694.74 14767.74,10702.47 14771.97,10707.55"/>
    </edge>
    <edge id=":11950448012_0" function="internal">
        <lane id=":11950448012_0_0" index="0" allow="rail" speed="0.10" length="0.10" shape="21077.43,17209.10 21077.43,17209.10"/>
    </edge>
    <edge id=":11950448013_0" function="internal">
        <lane id=":11950448013_0_0" index="0" allow="rail" speed="44.44" length="36.37" shape="21089.98,17234.44 21093.09,17240.81 21097.96,17250.79 21102.92,17260.72 21106.26,17266.96"/>
    </edge>
    <edge id=":11950448013_1" function="internal">
        <lane id=":11950448013_1_0" index="0" allow="rail rail_electric rail_fast" speed="44.44" length="36.38" shape="21087.06,17236.06 21106.26,17266.96"/>
    </edge>
    <edge id=":11950448015_0" function="internal">
        <lane id=":11950448015_0_0" index="0" allow="rail" speed="44.44" length="24.05" shape="21119.68,17282.08 21121.67,17286.84 21124.31,17293.18 21127.04,17299.48 21129.28,17304.12"/>
    </edge>
    <edge id=":11950448015_1" function="internal">
        <lane id=":11950448015_1_0" index="0" allow="rail rail_electric rail_fast" speed="44.44" length="24.05" shape="21116.65,17283.65 21129.28,17304.12"/>
    </edge>
    <edge id=":11950448017_0" function="internal">
        <lane id=":11950448017_0_0" index="0" allow="rail" speed="44.44" length="39.91" shape="21519.14,18019.33 21541.05,18052.68"/>
    </edge>
    <edge id=":11950448017_1" function="internal">
        <lane id=":11950448017_1_0" index="0" allow="rail rail_electric rail_fast" speed="44.44" length="41.56" shape="21519.14,18019.33 21539.11,18055.77"/>
    </edge>
    <edge id=":11950448018_0" function="internal">
        <lane id=":11950448018_0_0" index="0" allow="rail rail_electric rail_fast" speed="44.44" length="43.98" shape="21543.09,18049.76 21564.42,18088.22"/>
    </edge>
    <edge id=":11950448018_1" function="internal">
        <lane id=":11950448018_1_0" index="0" allow="rail" speed="44.44" length="42.33" shape="21541.16,18052.85 21564.42,18088.22"/>
    </edge>
    <edge id=":11950448019_0" function="internal">
        <lane id=":11950448019_0_0" index="0" allow="rail" speed="44.44" length="0.10" shape="21545.30,18066.85 21545.22,18066.90"/>
    </edge>
    <edge id=":11950448019_1" function="internal">
        <lane id=":11950448019_1_0" index="0" allow="rail" speed="44.44" length="2.89" shape="21543.83,18064.36 21545.30,18066.85"/>
    </edge>
    <edge id=":11950448019_2" function="internal">
        <lane id=":11950448019_2_0" index="0" allow="rail rail_electric rail_fast" speed="44.44" length="2.90" shape="21543.83,18064.36 21545.22,18066.90"/>
    </edge>
    <edge id=":11950448020_0" function="internal">
        <lane id=":11950448020_0_0" index="0" allow="rail" speed="0.10" length="0.10" shape="21566.40,18099.94 21566.40,18099.94"/>
    </edge>
    <edge id=":11952294780_0" function="internal">
        <lane id=":11952294780_0_0" index="0" allow="rail" speed="44.44" length="48.32" shape="19505.06,14052.32 19529.19,14094.19"/>
    </edge>
    <edge id=":11952294780_1" function="internal">
        <lane id=":11952294780_1_0" index="0" allow="rail rail_electric rail_fast" speed="44.44" length="48.38" shape="19505.06,14052.32 19526.29,14095.79"/>
    </edge>
    <edge id=":11952294781_0" function="internal">