<?xml version="1.0" encoding="UTF-8"?>

<!-- generated on 2026-02-22T15:10:11.211886+05:30 by Eclipse SUMO netedit 1.26.0
-->

<routes xmlns:xsi="http://www.w3.org/2001/XMLSchema-instance" xsi:noNamespaceSchemaLocation="http://sumo.dlr.de/xsd/routes_file.xsd">
     
    <!-- Routes -->
   <!-- <route id="r_0" edges="372172712 367611314 367611308 367611312 521712763 810347723 810347722 521712768 385081047 385081038 385081034#0 385081034#1 44629484 810347720 521495092#0 1313429992 380964042#1 380964042#2 380964042#3 380964042#4 380964042#5 380964042#6 380964042#7 380964042#8"/>
    <route id="r_1" edges="810347770 521768171 367611309 521712765 521712764 385167986#0 385167986#1 397175327 397175326 385081050 385081041 385081036 385081037#0 385081037#1 1209260490 385081051 381069394 381069370 380964042#0 380964042#1 380964042#2 380964041 380964042#4 380964042#5 380964042#6 380964042#7 380964042#8"/>
    <route id="r_2" edges="372172712 367611314 367611308 367611312 521712763 810347723 810347722 521712768 385081047 385081038 385081034#0 385081034#1 44629484 810347720 521495092#0 521495092#1 521495092#2 521495092#3 521495092#4 521495092#5 521495092#6 521495092#7 521495092#8 521495092#9 521495092#10 521495092#11 521495092#12 521495092#13"/>
    <route id="r_3" edges="1311347647#0 372219772#2 810424752 372219772#4 372219772#5 372219772#6 371954057#0 371954057#1 371954057#2 371954057#3 371954057#4 371954057#5 371954057#6 372219784#0 372219784#1 44629483 521553175#0 521553175#1 212637357 521553175#3 1209260491 385081043 385081048#0 385081045 385081048#2 385081048#3 385081040 789062200"/>
    <route id="r_4" edges="372172712 367611314 367611308 367611312 521712763 810347723 810347722 521712768 385081047 385081038 385081034#0 385081034#1 44629484 810347720 521495092#0 521495092#1 521495092#2 521495092#3 521495092#4 521495092#5 521495092#6 521495092#7 521495092#8 521495092#9 521495092#10 521495092#11 810449230#0 810449230#1 810449230#2"/>-->
<route id="UP_FAST" edges="1311347647#0 372219772#2 810424752 372219772#4 372219772#5 372219772#6 371954057#0 371954057#1 371954057#2 371954057#3 371954057#4 371954057#5 371954057#6 372219784#0 372219784#1 44629483 521553175#0 521553175#1 521553175#2 521553175#3 1209260491 385081053#0 385081053#1 385081052 385081054 385081055 44629491 521712767 521712762 44629497 367611310 367611315 367611317#0 367611317#1"/>
    <route id="UP_SLOW" edges="372219772#0 617328197#1 1311347647#1 372219772#4 372219772#5 372219772#6 371954057#0 371954057#1 371954057#2 371954057#3 371954057#4 371954057#5 371954057#6 372219784#0 372219784#1 44629483 521553175#0 521553175#1 212637357 521553175#3 1209260491 385081053#0 385081053#1 385081052 385081054 385081055 44629491 521712767 521712762 44629497 367611310 367611315 367611317#0 367611317#1"/>
    <route id="DOWN_FAST" edges="810347763#1 810347762#1 810347762#2 810347762#3 372163996 372172712 367611314 367611308 367611312 521712763 810347723 810347722 521712768 385081047 385081038 385081034#0 385081034#1 44629484 810347720 521495092#0 521495092#1 521495092#2 521495092#3 521495092#4 521495092#5 521495092#6 521495092#7 521495092#8 521495092#9 521495092#10 521495092#11 521495092#12 521495092#13"/>
    <route id="DOWN_SLOW" edges="810347762#0 810347762#1 810347762#2 810347762#3 810347770 521768171 367611309 521712765 521712764 385167986#0 385167986#1 397175327 397175326 385081050 385081041 385081036 385081037#0 385081037#1 1209260490 385081051 381069394 381069370 380964042#0 380964042#1 380964042#2 380964041 380964042#4 380964042#5 380964042#6 380964042#7 380964042#8"/>
    <route id="UP_SUB" edges="1311347647#0 372219772#2 810424752 372219772#4 372219772#5 372219772#6 371954057#0 371954057#1 371954057#2 371954057#3 371954057#4 371954057#5 371954057#6 372219784#0 372219784#1 44629483 521553175#0 521553175#1 212637357 521553175#3 1209260491 385081043 385081048#0 385081045 385081048#2 385081048#3 385081040 789062200"/>

<vType id="LIVE_RAIL"
       vClass="rail"
       accel="1.0"
       decel="1.0"
       sigma="0.5"
       length="220"
       maxSpeed="44.44"
       guiShape="rail"/>
    <!-- ================= VEHICLE TYPES ================= -->

    <vType id="EMU"
           vClass="rail"
           accel="1.1"
           decel="1.3"
           maxSpeed="22.22"
           length="200"
           color="1,1,0"/>

    <vType id="EXPRESS"
           vClass="rail"
           accel="0.9"
           decel="1.1"
           maxSpeed="33.33"
           length="220"
           color="1,0,0"/>

    <vType id="SUPERFAST"
           vClass="rail"
           accel="0.8"
           decel="1.0"
           maxSpeed="44.44"
           length="230"
           color="1,0,1"/>

    <vType id="FREIGHT"
           vClass="rail"
           accel="0.5"
           decel="0.8"
           maxSpeed="16.66"
           length="450"
           color="0.4,0.4,0.4"/>


    <!-- ================= ROUTES ================= -->

   <!-- <route id="DOWN_MAIN"
           edges="372172712 367611314 367611308 367611312 521712763 810347723 810347722 521712768 385081047 385081038 385081034#0 385081034#1 44629484 810347720 521495092#0 1313429992 380964042#1 380964042#2 380964042#3 380964042#4 380964042#5 380964042#6 380964042#7 380964042#8"/>

    <route id="UP_MAIN"
           edges="810347770 521768171 367611309 521712765 521712764 385167986#0 385167986#1 397175327 397175326 385081050 385081041 385081036 385081037#0 385081037#1 1209260490 385081051 381069394 381069370 380964042#0 380964042#1 380964042#2 380964041 380964042#4 380964042#5 380964042#6 380964042#7 380964042#8"/>
     <route id="DOWN_SUB" edges="372172712 367611314 367611308 367611312 521712763 810347723 810347722 521712768 385081047 385081038 385081034#0 385081034#1 44629484 810347720 521495092#0 521495092#1 521495092#2 521495092#3 521495092#4 521495092#5 521495092#6 521495092#7 521495092#8 521495092#9 521495092#10 521495092#11 810449230#0 810449230#1 810449230#2"/>
     <route id="DOWN_FAST"
edges="372172712 367611314 367611308 367611312 521712763 
810347723 810347722 521712768 
385081047 385081038 
385081034#0 385081034#1 
44629484 810347720 
521495092#2 521495092#3 
521495092#8 521495092#9 
521495092#10 521495092#11 
810449230#0 810449230#1 810449230#2"/>
<route id="DOWN_LOOP"
edges="372172712 367611314 367611308 367611312 521712763 
810347723 810347722 521712768 
385081047 385081038 
385081034#0 385081034#1 
44629484 810347720 
521495092#5 521495092#6 521495092#7"/>
<route id="UP_SUB"
edges="810347770 521768171 367611309 521712765 521712764 
385167986#0 385167986#1 
397175327 397175326 
385081050 385081041 385081036 
385081037#0 385081037#1 
1209260490 385081051 
381069394 381069370 
380964042#0 380964042#1 
380964042#2 380964041 
380964042#4 380964042#5 
380964042#6 380964042#7 
380964042#8"/>
<route id="UP_FAST"
edges="810347770 521768171 367611309 521712765 521712764 
385167986#0 385167986#1 
397175327 397175326 
385081050 385081041 385081036 
385081037#0 385081037#1 
1209260490 385081051 
381069394 381069370 
380964042#2 380964042#3 
380964042#4 380964042#5"/>
<route id="UP_LOOP"
edges="810347770 521768171 367611309 521712765 521712764 
385167986#0 385167986#1 
397175327 397175326 
385081050 385081041 385081036 
385081037#0 385081037#1 
1209260490 385081051 
381069394 381069370 
380964042#6 380964042#7 
380964042#8"/>-->
</routes>
    <!-- ================= EMU LOCALS (Every 10 min) ================= -->

 <!-- <vehicle id="EMU_D_01" type="EMU" route="r_2" depart="0"/>
<vehicle id="EXP_D_01" type="EXPRESS" route="r_0" depart="450"/>
<vehicle id="EMU_U_01" type="EMU" route="r_1" depart="300"/>
<vehicle id="EMU_D_02" type="EMU" route="r_2" depart="600"/>
<vehicle id="EMU_U_02" type="EMU" route="r_1" depart="900"/>
<vehicle id="EMU_D_03" type="EMU" route="r_2" depart="1200"/>
<vehicle id="EXP_U_01" type="EXPRESS" route="r_1" depart="1350"/>
<vehicle id="EMU_U_03" type="EMU" route="r_1" depart="1500"/>-->
    


    <!-- ================= EXPRESS ================= -->

   



    <!-- ================= SUPERFAST ================= -->

 <!--  <vehicle id="SF_D_01" type="SUPERFAST" route="r_0" depart="1800"/>
    <vehicle id="FR_D_01" type="FREIGHT" route="r_3" depart="2100"/>
<vehicle id="SF_U_01" type="SUPERFAST" route="r_1" depart="2700"/>-->


    <!-- ================= FREIGHT ================= -->

   
<!--<vehicle id="FR_D_02" type="FREIGHT" route="r_4" depart="3000"/>-->

